Geom Title=Auto Generated Geometry
Program Version=6.60
Viewing Rectangle=-1529.12 , 1041.28 , 1557.34 ,-1625.06 

River Reach=Meerlustkloof   ,Main            
Reach XY= 41 
        -1035.69         1461.09        -1090.79         1382.09
        -1065.33         1285.09        -1021.71         1195.09
        -1007.89         1098.09        -1023.21         1000.09
        -1031.58          901.09        -1039.66          802.09
        -1050.33          703.09        -1049.37          603.09
        -1059.91          506.09        -1085.13          409.09
        -1083.66          316.09        -1104.34          218.09
        -1113.02          119.09        -1101.94           22.09
        -1036.64          -48.91         -958.41         -111.91
         -888.06         -180.91         -828.21         -261.91
         -743.79         -314.91         -645.28         -331.91
         -546.78         -348.91         -448.27         -365.91
         -351.62         -391.91         -257.08         -422.91
         -169.38         -470.91          -81.68         -518.91
            1.85         -573.91            82.1         -632.91
          174.57         -670.91          269.18         -700.91
           369.1         -704.91          464.26         -729.91
          555.35         -770.91          594.74         -861.91
          652.04         -941.91          735.73         -996.91
          792.44        -1071.91          824.54        -1155.91
          831.54        -1167.91
Rch Text X Y=-568.8825,803.84
Reverse River Text= 0 

Type RM Length L Ch R = 1 ,3905.000,498,501,510
BEGIN DESCRIPTION:
Auto-generated cross section at chainage 0.000 m
END DESCRIPTION:
Node Last Edited Time=Mar/13/2026 13:47:57
#Sta/Elev= 96 
 -210.61  293.36-203.038 292.979-198.461 292.794 -193.82 292.677-192.623 292.575
-191.408 292.532-189.219 292.433-184.372 292.235-178.642 291.997-178.093 291.979
-174.703 291.836-168.576 291.687 -164.41 291.633-157.025 291.537-153.188 291.488
-151.399  291.52-149.912 291.625-141.483 291.165    -140291.1072-131.861  290.79
-130.498  290.83-128.472  291.12-123.528 291.223-116.469 291.139-109.601 291.044
-106.591 291.014 -98.388 290.649 -96.719 290.572 -88.955 290.265 -87.381 290.203
 -77.345 289.908 -74.441 289.892 -66.839  289.77 -62.532 289.701 -57.601 289.654
 -50.498  289.47 -47.763 289.412 -39.855 289.259 -36.624 289.216  -29.98 289.044
 -29.086 289.027 -28.353 289.018 -21.017 288.946 -13.364 289.076 -12.717 289.076
 -12.443 289.071    -7.4 288.889  -7.119 287.869  -6.806 286.191  -5.186 286.378
  -2.876 286.531    .192 286.703   2.666 286.839   6.667 287.015  10.084 287.455
  10.376 287.427  10.501 287.421  10.966  287.17  10.966  287.18  13.356   287.2
  15.746  287.38  18.136  287.48  20.526  287.65  22.916  287.81  25.306  287.86
  27.696  288.06      30288.0793  30.086  288.08  32.476   288.2  34.866  288.28
  37.256  288.28  39.646  288.28  42.036   288.4  44.426  288.52  46.816  288.67
  49.206  288.81  51.596  288.97  53.986  289.14  56.376  289.31  58.766  289.49
      60289.5055  61.156  289.52  63.546   289.7  65.936  289.88  68.326  290.04
  70.716  290.27  73.106  290.62  75.496  291.08  77.886  291.48  80.276  291.84
  82.666  292.16  85.056  292.53  87.446  292.73  89.836  293.07  92.226   293.4
  93.006  293.49
#Mann= 3 ,0,0
 -210.61     .06       0    -7.4     .04       0  10.084     .06       0
Bank Sta=-7.4,10.084
XS Rating Curve= 0 ,0
XS HTab Starting El and Incr=286.341,0.3, 24 
XS HTab Horizontal Distribution= 5 , 5 , 5 
Exp/Cntr=0.3,0.1

Type RM Length L Ch R = 1 ,3405.000,506,501,523
BEGIN DESCRIPTION:
Auto-generated cross section at chainage 500.000 m
END DESCRIPTION:
Node Last Edited Time=Mar/13/2026 12:39:54
#Sta/Elev= 61 
-156.006 284.608-151.186  283.48-145.903 282.553-137.576 280.569-135.417 280.096
-132.981 280.034 -122.14 279.825-119.768 279.817-111.279 279.853 -109.83  279.85
-100.949 280.029    -100280.0523 -99.687  280.06  -98.52  279.95 -85.509 278.723
 -84.361 278.856 -83.679 278.855     -70278.9607 -67.244 278.982 -67.202 278.983
 -67.188 278.981 -66.066 279.014 -54.681 279.343 -54.232 279.352 -48.422 279.187
 -46.195 279.267 -45.879 279.264 -39.052   279.2 -38.141 279.195 -31.115 279.114
 -30.222 279.129 -28.311 279.082  -23.67 279.042 -22.738 279.044 -18.726 279.008
 -13.916  279.01 -10.751 278.996   -8.55 277.305  -7.382 276.593  -5.456 276.628
   -.761 276.686   2.512 276.339   4.847  276.03   7.291 276.059   9.797 275.967
  10.264 277.189  11.047 278.763  12.034 278.764  15.432 278.552  19.262 278.288
  26.523 278.607  37.183 278.909  49.035  279.13  52.291  279.07   57.98 279.299
      60279.4001  63.418 279.571  64.591 279.632   68.07 280.191      70280.5276
  73.644 281.163
#Mann= 3 ,0,0
-156.006     .06       0 -10.751     .04       0  11.047     .06       0
Bank Sta=-10.751,11.047
XS Rating Curve= 0 ,0
XS HTab Starting El and Incr=276.117,0.3, 28 
XS HTab Horizontal Distribution= 5 , 5 , 5 
Exp/Cntr=0.3,0.1

Type RM Length L Ch R = 1 ,2905.000,491,502,523
BEGIN DESCRIPTION:
Auto-generated cross section at chainage 1000.000 m
END DESCRIPTION:
Node Last Edited Time=Mar/13/2026 12:39:39
#Sta/Elev= 58 
 -90.173 269.715 -89.208 269.865 -89.206 269.865     -89269.8322 -83.059 268.885
 -77.693 268.631 -74.884  268.56 -74.084 268.573 -64.516 268.617 -60.137 268.662
   -56.2 268.735     -50268.8372 -49.585 268.844 -49.553 268.844  -49.54 268.845
 -42.148 269.047     -40269.0869 -38.651 269.112 -33.614 269.064 -28.134 269.087
 -26.164 269.111 -22.259 269.071  -20.55 269.033 -17.027 268.929 -16.583 269.012
 -15.728 267.164 -15.591 267.004  -13.76 267.079 -11.342 267.198 -10.951 267.215
  -7.778 267.314   -5.33 267.387   -4.96 267.399  -4.825 267.398  -1.698 267.397
   -.959 267.415   8.254 267.566  14.451 269.069  15.415 269.253  15.772 269.248
  19.371 269.112  24.326 269.202  33.448 269.407  40.582  269.69  47.127 269.917
      60270.3137  60.529  270.33  60.628 270.334   60.73 270.348  74.465 271.666
  82.446 272.963  85.907 273.503  89.136 274.018  89.553 274.026  89.854 274.033
      90274.0241  93.096 273.836  94.359 273.773
#Mann= 3 ,0,0
 -90.173     .06       0 -16.583     .04       0  15.415     .06       0
Bank Sta=-16.583,15.415
XS Rating Curve= 0 ,0
XS HTab Starting El and Incr=267.154,0.3, 23 
XS HTab Horizontal Distribution= 5 , 5 , 5 
Exp/Cntr=0.3,0.1

Type RM Length L Ch R = 1 ,2405.000,470,501,569
BEGIN DESCRIPTION:
Auto-generated cross section at chainage 1500.000 m
END DESCRIPTION:
Node Last Edited Time=Mar/13/2026 13:42:40
#Sta/Elev= 59 
-130.774 267.386-115.115  263.73 -110.59 261.949-106.775 261.605-100.859 261.437
 -87.431 261.183 -77.478 261.168 -69.556 261.129 -64.789 261.102     -60261.0285
 -51.244 260.894     -50260.8879 -43.061 260.854 -40.986 260.748   -39.5 260.578
 -37.638 260.458 -31.825 260.142 -27.605  259.76 -25.454 259.587 -19.443 259.172
 -18.955 259.051 -12.957 258.556  -9.566 258.283  -9.304 258.226  -5.712 258.238
  11.316 257.978  13.629 257.959  20.811 257.935  23.855 257.922  24.695 257.922
   24.73 257.935  25.181 258.288  26.932 259.647  30.857 259.967  42.908 261.013
  48.125 261.125      50261.1194  53.141  261.11  71.945 260.819  72.022 260.818
  72.333 260.814  92.021 260.602  96.998 260.615 111.582 260.683     120260.6893
 122.286 260.691 130.385 260.713 148.057 261.004 149.729 261.056 152.853 261.179
 169.347  261.81 173.516 261.946 189.431 262.094 194.704 262.128  201.72 263.201
 205.198 263.862 211.092 264.587 217.278 265.102 220.746 265.216
#Mann= 3 ,0,0
-130.774     .06       0 -43.061     .04       0  48.125     .06       0
Bank Sta=-43.061,48.125
XS Rating Curve= 0 ,0
XS HTab Starting El and Incr=258.072,0.3, 31 
XS HTab Horizontal Distribution= 5 , 5 , 5 
Exp/Cntr=0.3,0.1

Type RM Length L Ch R = 1 ,1905.000,582,500,495
BEGIN DESCRIPTION:
Auto-generated cross section at chainage 2000.000 m
END DESCRIPTION:
Node Last Edited Time=Mar/13/2026 13:42:57
#Sta/Elev= 61 
-288.632   273.5-285.853     273-282.946   272.5-280.355     272-277.642   271.5
-274.929     271-272.217   270.5 -269.52     270-265.979   269.5-262.263     269
-258.547   268.5-254.273     268-249.899   267.5-245.946     267-241.299   266.5
-236.621     266-232.192   265.5-228.042     265  -223.9   264.5-219.154     264
-213.533   263.5-208.804     263-201.153   262.5-194.358     262 -186.81   261.5
-179.113     261 -172.37   260.5-166.219     260-159.729   259.5-153.081     259
 -145.98   258.5-139.552     258-132.818   257.5-125.794     257-121.473   256.5
-117.151     256-112.947   255.5-106.273     255 -99.582   254.5-86.5533     254
-67.1953   253.5-64.9652     253 -62.817   252.5     -60   252.5-59.6684   252.5
-30.9989     253-5.93457     25318.93039   252.522.20224     25227.18595   251.5
27.53381   251.534.71477   251.534.77444   251.5      35251.670935.43425     252
36.09526   252.536.75508     25338.35705   253.540.77916     254      43254.4208
43.41789   254.5
#Mann= 3 ,0,0
-288.632     .06       018.93039     .04       034.77444     .06       0
Bank Sta=18.93039,34.77444
XS Rating Curve= 0 ,0
XS HTab Starting El and Incr=251.65,0.3, 73 
XS HTab Horizontal Distribution= 5 , 5 , 5 
Exp/Cntr=0.3,0.1

Type RM Length L Ch R = 1 ,1405.000,501,500,521
BEGIN DESCRIPTION:
Auto-generated cross section at chainage 2500.000 m
END DESCRIPTION:
Node Last Edited Time=Mar/13/2026 13:43:17
#Sta/Elev= 79 
    -300 257.016-296.816 256.717-288.402 256.088-282.303 255.494-275.849 255.015
-267.911 254.389-263.192 253.995-252.091 253.199 -250.29 253.082-241.058 252.535
-236.659 252.281-235.989 252.248-221.501 251.513-219.249 251.337-216.422 251.215
-205.018 250.735-199.772 250.648 -193.85 250.483-185.993 250.226-178.849 250.005
-174.779 249.875 -165.99 249.803 -165.49 249.799-157.854  249.81-156.913 249.782
-155.749 249.748    -150249.5766-121.574 248.729    -120248.6652-117.971 248.583
-113.155  248.41-107.397  248.32-103.774 248.227 -97.007  248.39 -95.784 248.424
 -94.813 248.437 -87.227 248.502 -86.466 248.515 -79.628 248.584 -77.047 248.616
 -71.257 248.662 -64.823 248.801 -63.504 248.826 -57.295 249.115 -55.201 249.117
 -50.706 248.887 -47.344 248.616 -45.579 248.592 -39.327 248.504 -28.575 248.808
 -25.973 248.875 -23.931 249.061 -23.917 249.062  -21.57 249.064 -16.104 249.632
  -15.75 249.588 -15.214 249.565  -13.28 249.427 -12.732 249.332 -12.404 249.279
 -11.767 248.854 -11.027 248.374 -10.345 247.904 -10.183 247.815  -8.473 247.715
   5.642 246.883  10.542 247.163  11.236 247.183  12.279  247.23  22.947  247.58
  25.787  247.72  26.216 248.357  26.743  249.15  32.689 249.029  39.306  248.97
      40249.0083  40.157 249.017      42249.1106  42.481 249.135
#Mann= 3 ,0,0
    -300     .06       0 -12.404     .04       0  26.743     .06       0
Bank Sta=-12.404,26.743
XS Rating Curve= 0 ,0
XS HTab Starting El and Incr=247.033,0.3, 33 
XS HTab Horizontal Distribution= 5 , 5 , 5 
Exp/Cntr=0.3,0.1

Type RM Length L Ch R = 1 ,905.000 ,510,501,471
BEGIN DESCRIPTION:
Auto-generated cross section at chainage 3000.000 m
END DESCRIPTION:
Node Last Edited Time=Mar/13/2026 12:38:28
#Sta/Elev= 53 
    -300 253.313-290.779 251.881-290.043 251.785-283.052 250.713 -265.89 247.932
-265.009 247.787-264.429  247.72    -260247.2101-251.652 246.249-242.196 245.737
-237.857 245.561-225.288 245.239-221.579 245.117-181.005 244.337-171.287 244.169
 -167.56 244.142    -140244.0636-139.093 244.061-133.081 244.181-124.512 244.165
-119.234 244.169-114.981 244.163 -100.07 244.133 -72.449 244.139 -69.871 244.257
 -50.383 244.361 -38.556 244.236 -31.045 244.182 -18.241 243.736   -.848 243.178
    .917 243.141   4.662 242.913   6.876 242.898   9.995 243.027  13.522 242.832
  15.877 243.223  22.899  245.44  32.886 245.595  33.476 245.618  45.015 246.136
  48.769 246.316  54.113 246.644      55 246.816  62.732 248.315   69.06 249.254
  69.743 249.256      70249.2721  89.079 250.465  95.394 250.826  97.983 250.776
 100.414 251.346 102.528 251.763 117.837 254.246
#Mann= 3 ,0,0
    -300     .06       0 -31.045     .04       0  22.899     .06       0
Bank Sta=-31.045,22.899
XS Rating Curve= 0 ,0
XS HTab Starting El and Incr=242.982,0.3, 38 
XS HTab Horizontal Distribution= 5 , 5 , 5 
Exp/Cntr=0.3,0.1

Type RM Length L Ch R = 1 ,405.000 ,457,473,501
BEGIN DESCRIPTION:
Auto-generated cross section at chainage 3500.000 m
END DESCRIPTION:
Node Last Edited Time=Mar/13/2026 12:38:04
#Sta/Elev= 103 
    -300 265.163-297.709 265.046-294.545 264.897-288.688 264.536-285.219 264.356
-277.642 263.916 -275.48 263.811-273.744 263.742-263.613 263.389-241.861  261.87
-235.427 261.383-230.423 260.857 -219.13 258.669-210.698 256.998-209.562 256.733
-209.308 256.657-202.561 255.067-190.072 248.983-184.367 246.533-180.621 244.615
    -180244.3994-168.825 240.519-165.229 240.574    -160240.6456-157.927 240.674
-156.116 240.676-150.905 240.669-143.114 240.672-142.274 240.672-132.328 240.771
 -95.867 239.443  -91.92 239.407 -75.946 239.629 -70.313 239.683 -59.808 239.629
 -46.844 239.635 -43.359 239.636 -40.388 239.679 -31.313 239.839 -20.175 239.989
 -18.917 239.727 -16.298 239.137 -15.134 238.879 -14.659 238.861 -13.416 238.817
  -8.633 238.778  -1.712 238.973   5.306 239.125   8.269 238.937   11.59  238.84
  13.324 238.677  15.115 238.486  16.343 238.573  18.425 238.739  19.989 239.104
  20.567 239.263  22.303 239.354  24.604 239.598  26.412 239.763  29.943 240.348
      30240.3597  30.969 240.559  31.832 240.538   32.99 240.529   58.89  240.82
  69.794 240.791   91.99 240.554  92.931 240.583  95.663 240.699 109.263 240.738
 120.228 241.193 126.145 241.525 134.427 241.895 134.512 241.896 136.559 241.968
 139.744 242.542 140.191 242.657 140.434 242.708 140.927 242.824 152.883 245.227
 162.345  247.03 165.184 247.424 170.185 248.385  174.55 249.283     178250.2144
 178.328 250.303 184.629 251.497 189.494 252.566 194.774 253.757 204.212 255.476
 208.289 256.424 221.962 256.793 224.514 256.995 232.998 257.948 238.674 258.297
 245.354   258.8 246.876 258.821 249.686 258.755 257.004 259.172 264.369 259.578
 264.643 259.579 267.971 259.798 268.465 261.381
#Mann= 3 ,0,0
    -300     .06       0 -20.175     .04       0  30.969     .06       0
Bank Sta=-20.175,30.969
XS Rating Curve= 0 ,0
XS HTab Starting El and Incr=238.636,0.3, 88 
XS HTab Horizontal Distribution= 5 , 5 , 5 
Exp/Cntr=0.3,0.1

Type RM Length L Ch R = 1 ,0.000   ,0,0,0
BEGIN DESCRIPTION:
Auto-generated cross section at chainage 3905.000 m
END DESCRIPTION:
Node Last Edited Time=Mar/12/2026 23:53:22
#Sta/Elev= 50 
-179.041 240.134 -176.97 240.075-176.753 240.087 -176.41 240.081-173.615 239.865
-166.712 239.436 -161.07  238.94-159.502 238.818-157.401  238.66-151.056 238.176
    -150238.1176-148.887 238.056-145.112 237.877-140.578 237.646 -135.69 237.312
-127.914 237.387-101.416  237.56     -90237.5126 -54.929 237.367 -51.254 237.364
  -47.82 237.401 -40.333 237.423 -37.185 237.527 -26.647 237.481 -25.998 237.489
 -21.173 237.442 -18.543  237.47   -5.92 237.222  -4.672 237.335  -2.297 237.161
    -.14 237.185  11.757 237.133  15.964 236.185  17.635     236  17.736     236
   18.09     236  18.449     236  20.084     236  23.664     236  24.097     236
  25.365     236  26.937     236  26.954     236  27.144     236      36237.5229
  36.012 237.525   40.68  237.95  44.451 238.219  47.785 238.605      50238.9106
#Mann= 3 ,0,0
-179.041     .06       0  11.757     .04       0  36.012     .06       0
Bank Sta=11.757,36.012
XS Rating Curve= 0 ,0
XS HTab Starting El and Incr=236.15,0.2, 20 
XS HTab Horizontal Distribution= 5 , 5 , 5 
Exp/Cntr=0.3,0.1

LCMann Time=Dec/30/1899 00:00:00
LCMann Region Time=Dec/30/1899 00:00:00
LCMann Table=0
Chan Stop Cuts=-1 



Use User Specified Reach Order=0
GIS Units=METRIC
GIS DTM Type=
GIS DTM=
GIS Stream Layer=
GIS Cross Section Layer=
GIS Map Projection=
GIS Projection Zone=
GIS Datum=
GIS Vertical Datum=
GIS Data Extents=,,,

GIS Ratio Cuts To Invert=-1
GIS Limit At Bridges=0
Composite Channel Slope=5
