Geom Title=Example 1.2-RASMAP
Program Version=6.70
Viewing Rectangle=-1503.92211114928 , 1016.07788885072 , 1526.13599356031 ,-1593.86400643969 

River Reach=iaowhdoia       ,0               
Reach XY= 13 
-1023.92211114921331.94512219102-1043.3411982862 1014.7666989545
-1082.1793725600 581.07375289641-1069.2333144687393.355910572759
-1159.8557211077115.015661610103-1082.1793725600-92.121267850477
-739.10883314097-176.27064544383-544.91796177168-228.05487780898
231.845523705495-474.02998154342387.198220800931-687.63994004964
 794.99905067645-914.19595664715866.202370178524-1011.2913923318
950.351747771885-1114.8598570621
Rch Text X Y=-530.3536464,720.2438774
Reverse River Text= 0 

LCMann Time=Dec/30/1899 00:00:00
LCMann Region Time=Dec/30/1899 00:00:00
LCMann Table=0
Chan Stop Cuts=-1 



Use User Specified Reach Order=0
GIS Ratio Cuts To Invert=-1
GIS Limit At Bridges=0
Composite Channel Slope=5
